T44/data_conversion/PT/PT_Tx_2050_Slow/Transmission_Network_PT_2050_Slow_Progression.m
function mpc = Transmission_Network_PT_2050_Slow_Progression

%% MATPOWER Case Format : Version 2
mpc.version = '2';

%%-----  Power Flow Data  -----%%
%% system MVA base
mpc.baseMVA = 100;

%% bus data
%	bus_i	type	Pd	Qd	Gs	Bs	area	Vm	Va	baseKV	zone	Vmax	Vmin
mpc.bus = [
	1	2	0.000	0.000	0	0	1	1.0492	19.81	400	1	1.05	0.95	;
	2	2	0.000	0.000	0	0	1	1.0487	20.18	400	1	1.05	0.95	;
	3	2	0.000	0.000	0	0	1	1.0443	7.48	400	1	1.05	0.95	;
	4	2	0.000	0.000	0	0	1	1.0401	0.95	400	1	1.05	0.95	;
	5	2	0.000	0.000	0	0	1	1.049	21.01	220	1	1.05	0.95	;
	6	2	0.000	0.000	0	0	1	1.0487	20.94	220	1	1.05	0.95	;
	7	2	0.000	0.000	0	0	1	1.0366	-5.63	400	1	1.05	0.95	;
	305	2	0.000	0.000	0	0	1	1.0475	16.47	400	1	1.05	0.95	;
	8	1	0.000	0.000	0	0	1	1.011	-0.04	150	2	1.05	0.95	;
	9	1	0.000	0.000	0	0	1	1.035	-6.51	150	2	1.05	0.95	;
	10	2	0.000	0.000	0	0	1	1.04	-5.65	150	2	1.05	0.95	;
	11	1	4.989	-0.374	0	0	1	1.023	-7.94	150	2	1.05	0.95	;
	12	1	0.000	0.000	0	0	1	1.0195	-9.92	150	2	1.05	0.95	;
	13	1	7.483	2.619	0	0	1	1.0324	-6.97	150	2	1.05	0.95	;
	14	2	0.000	0.000	0	0	1	1.0359	-6.32	150	2	1.05	0.95	;
	15	1	0.000	0.000	0	0	1	1.0422	-5.31	150	2	1.05	0.95	;
	16	1	0.000	0.000	0	0	1	1.0232	14.31	150	2	1.05	0.95	;
	17	1	0.000	0.000	0	0	1	1.027	14.05	150	2	1.05	0.95	;
	18	1	8.731	-1.123	0	0	1	1.0253	13.7	150	2	1.05	0.95	;
	19	1	0.000	0.000	0	0	1	1.0219	-8.24	150	2	1.05	0.95	;
	20	1	0.000	0.000	0	0	1	1.0292	-7.37	150	2	1.05	0.95	;
	21	1	0.000	0.000	0	0	1	1.026	13.56	150	2	1.05	0.95	;
	22	2	0.000	0.000	0	0	1	1.0324	-7.56	150	2	1.05	0.95	;
	23	1	0.000	0.000	0	0	1	1.0147	-10.54	150	2	1.05	0.95	;
	24	2	0.000	0.000	0	0	1	1.0252	9.28	150	2	1.05	0.95	;
	25	1	0.000	0.000	0	0	1	1.0193	13.57	150	2	1.05	0.95	;
	26	1	4.989	0.125	0	0	1	1.0412	-5.57	150	2	1.05	0.95	;
	27	1	3.742	-0.249	0	0	1	1.0396	-5.98	150	2	1.05	0.95	;
	28	1	2.494	-0.249	0	0	1	1.0341	-7.59	150	2	1.05	0.95	;
	29	2	0.000	0.000	0	0	1	1.0284	-8.8	150	2	1.05	0.95	;
	30	2	0.000	0.000	0	0	1	1.0342	15.25	150	2	1.05	0.95	;
	31	1	0.000	0.000	0	0	1	1.0217	9.48	150	2	1.05	0.95	;
	32	1	0.000	0.000	0	0	1	1.0291	14.6	150	2	1.05	0.95	;
	33	1	0.000	0.000	0	0	1	1.0374	16.18	150	2	1.05	0.95	;
	34	2	0.000	0.000	0	-75	1	1.0357	-8.05	150	2	1.05	0.95	;
	36	1	0.000	0.000	0	0	1	1.024	0.12	220	2	1.05	0.95	;
	37	1	0.000	0.000	0	0	1	1.0273	-4.19	220	2	1.05	0.95	;
	38	1	0.000	0.000	0	0	1	1.0247	9.84	220	2	1.05	0.95	;
	39	1	0.000	0.000	0	0	1	1.0304	4.73	220	2	1.05	0.95	;
	40	1	0.000	0.000	0	0	1	1.0476	19.22	220	2	1.05	0.95	;
	41	1	0.000	0.000	0	0	1	1.0249	9.9	220	2	1.05	0.95	;
	42	1	0.000	0.000	0	0	1	1.0321	8.46	220	2	1.05	0.95	;
	43	1	0.000	0.000	0	0	1	1.0256	-4.57	220	2	1.05	0.95	;
	44	1	0.000	0.000	0	0	1	1.0231	9.09	220	2	1.05	0.95	;
	45	1	0.000	0.000	0	0	1	1.0287	-0.77	220	2	1.05	0.95	;
	46	1	0.000	0.000	0	0	1	1.0284	-2.67	220	2	1.05	0.95	;
	47	1	0.000	0.000	0	0	1	1.0347	11.88	220	2	1.05	0.95	;
	48	1	49.889	9.978	0	0	1	1.0261	7.71	220	2	1.05	0.95	;
	49	1	0.000	0.000	0	0	1	1.0213	9.61	220	2	1.05	0.95	;
	50	1	0.000	0.000	0	100	1	1.0276	-3.91	220	2	1.05	0.95	;
	51	1	0.000	0.000	0	0	1	1.0403	16.59	220	2	1.05	0.95	;
	52	1	0.000	0.000	0	0	1	1.0289	2.39	220	2	1.05	0.95	;
	53	1	0.000	0.000	0	0	1	1.0237	9.67	220	2	1.05	0.95	;
	54	1	0.000	0.000	0	0	1	1.0472	27.84	220	2	1.05	0.95	;
	55	1	0.000	0.000	0	0	1	1.0249	-4.71	220	2	1.05	0.95	;
	56	1	0.000	0.000	0	100	1	1.026	-5.06	220	2	1.05	0.95	;
	57	1	0.000	0.000	0	0	1	1.0257	10.26	220	2	1.05	0.95	;
	58	1	0.000	0.000	0	0	1	1.0245	-4.79	220	2	1.05	0.95	;
	59	1	0.000	0.000	0	0	1	1.0272	-4.34	220	2	1.05	0.95	;
	60	1	0.000	0.000	0	0	1	1.0348	11.71	220	2	1.05	0.95	;
	61	2	0.000	0.000	0	0	1	1.0355	12.05	220	2	1.05	0.95	;
	62	1	0.000	0.000	0	0	1	1.0334	10.64	220	2	1.05	0.95	;
	63	1	0.000	0.000	0	0	1	1.0449	25.6	220	2	1.05	0.95	;
	64	2	0.000	0.000	0	0	1	1.0239	-2.14	220	2	1.05	0.95	;
	65	2	0.000	0.000	0	0	1	1.0379	11.65	220	2	1.05	0.95	;
	66	1	0.000	0.000	0	0	1	1.036	12.35	220	2	1.05	0.95	;
	67	1	2.494	-0.249	0	0	1	1.0282	10.63	220	2	1.05	0.95	;
	68	1	0.000	0.000	0	0	1	1.0235	9.69	220	2	1.05	0.95	;
	69	1	0.000	0.000	0	0	1	1.0291	7.3	220	2	1.05	0.95	;
	71	1	0.000	0.000	0	0	1	1.0303	3.76	220	2	1.05	0.95	;
	72	1	0.000	0.000	0	-70	1	1.0254	10.08	220	2	1.05	0.95	;
	73	2	0.000	0.000	0	0	1	1.0307	20.67	220	2	1.05	0.95	;
	74	1	0.000	0.000	0	0	1	1.027	-2.95	220	2	1.05	0.95	;
	75	1	0.000	0.000	0	0	1	1.0357	14.38	220	2	1.05	0.95	;
	76	1	0.000	0.000	0	0	1	1.0246	-4.73	220	2	1.05	0.95	;
	77	1	0.000	0.000	0	0	1	1.0355	23.64	220	2	1.05	0.95	;
	78	1	0.000	0.000	0	-70	1	1.0301	6.21	220	2	1.05	0.95	;
	79	1	0.000	0.000	0	0	1	1.0322	16.55	220	2	1.05	0.95	;
	80	1	0.000	0.000	0	0	1	1.0408	-2.68	400	2	1.05	0.95	;
	81	1	0.000	0.000	0	0	1	1.0346	12.96	400	2	1.05	0.95	;
	82	1	0.000	0.000	0	0	1	1.0426	-1.14	400	2	1.05	0.95	;
	83	1	0.000	0.000	0	0	1	1.044	5.45	400	2	1.05	0.95	;
	84	1	0.000	0.000	0	0	1	1.0415	-3.21	400	2	1.05	0.95	;
	85	1	0.000	0.000	0	-150	1	1.0406	2.97	400	2	1.05	0.95	;
	86	1	0.000	0.000	0	0	1	1.0417	-3.51	400	2	1.05	0.95	;
	87	1	0.000	0.000	0	0	1	1.0407	-3.83	400	2	1.05	0.95	;
	88	1	0.000	0.000	0	0	1	1.0396	14.93	400	2	1.05	0.95	;
	89	1	0.000	0.000	0	-150	1	1.0439	-1.28	400	2	1.05	0.95	;
	90	1	0.000	0.000	0	-150	1	1.0467	14.81	400	2	1.05	0.95	;
	91	1	0.000	0.000	0	0	1	1.0446	16.18	400	2	1.05	0.95	;
	92	1	0.000	0.000	0	-150	1	1.0373	14.41	400	2	1.05	0.95	;
	93	1	0.000	0.000	0	0	1	1.0374	13.64	400	2	1.05	0.95	;
	94	1	0.000	0.000	0	0	1	1.0371	13.52	400	2	1.05	0.95	;
	95	1	0.000	0.000	0	0	1	1.0478	9.28	400	2	1.05	0.95	;
	96	1	0.000	0.000	0	0	1	1.049	18.32	400	2	1.05	0.95	;
	97	2	0.000	0.000	0	0	1	1.042	-3.12	400	2	1.05	0.95	;
	98	1	0.000	0.000	0	0	1	1.0478	7.4	400	2	1.05	0.95	;
	99	1	0.000	0.000	0	0	1	1.049	6.68	400	2	1.05	0.95	;
	100	1	0.000	0.000	0	0	1	1.0469	-0.01	400	2	1.05	0.95	;
	101	1	0.000	0.000	0	-150	1	1.0407	10.57	400	2	1.05	0.95	;
	102	1	0.000	0.000	0	-150	1	1.0228	-5.55	400	2	1.05	0.95	;
	103	1	0.000	0.000	0	0	1	1.0457	12.63	400	2	1.05	0.95	;
	104	1	0.000	0.000	0	-150	1	1.0417	15.92	400	2	1.05	0.95	;
	105	1	0.000	0.000	0	0	1	1.043	0.65	400	2	1.05	0.95	;
	106	1	0.000	0.000	0	0	1	1.0494	20.12	400	2	1.05	0.95	;
	107	2	0.000	0.000	0	0	1	1.0287	-5.58	400	2	1.05	0.95	;
	108	2	57.497	16.214	0	0	1	1.009	11.64	130	2	1.05	0.95	;
	109	2	295.594	43.029	0	0	1	1.0245	-3.29	63	2	1.05	0.95	;
	110	2	231.237	13.096	0	0	1	1.0287	-7.84	63	2	1.05	0.95	;
	111	2	221.633	26.566	0	0	1	1.0266	5.85	63	2	1.05	0.95	;
	112	2	280.502	39.038	0	0	1	1.0312	-8.27	63	2	1.05	0.95	;
	113	2	152.786	21.951	0	0	1	1.0323	-8.66	63	2	1.05	0.95	;
	114	2	265.535	36.170	0	0	1	1.0361	0.72	63	2	1.05	0.95	;
	115	2	42.281	7.858	0	0	1	1.0192	19.09	63	2	1.05	0.95	;
	116	2	335.879	66.727	0	0	1	1.0197	7.81	63	2	1.05	0.95	;
	117	2	85.061	10.352	0	0	1	1.0205	-10.19	63	2	1.05	0.95	;
	118	2	122.977	31.181	0	0	1	1.0259	7.64	63	2	1.05	0.95	;
	119	2	353.340	61.239	0	0	1	1.0408	-6.21	63	2	1.05	0.95	;
	120	2	306.569	57.123	0	0	1	1.0295	5.59	63	2	1.05	0.95	;
	121	2	180.848	34.299	0	0	1	1.0225	-12.38	63	2	1.05	0.95	;
	122	2	300.458	60.740	0	0	1	1.0383	0.94	63	2	1.05	0.95	;
	123	2	259.549	10.976	0	0	1	1.0371	-9.87	63	2	1.05	0.95	;
	124	2	185.214	48.517	0	0	1	1.0293	-2.32	63	2	1.05	0.95	;
	125	2	169.748	14.967	0	0	1	1.0257	-5.93	63	2	1.05	0.95	;
	126	2	138.817	18.334	0	0	1	1.035	-6.46	63	2	1.05	0.95	;
	127	2	169.374	31.680	0	0	1	1.0314	9.5	63	2	1.05	0.95	;
	128	2	360.325	80.821	0	0	1	1.0328	11.62	63	2	1.05	0.95	;
	129	2	256.056	36.045	0	0	1	1.0285	5.31	63	2	1.05	0.95	;
	130	2	382.775	76.206	0	0	1	1.0188	6.11	63	2	1.05	0.95	;
	131	2	212.653	34.548	0	0	1	1.0323	-3.79	63	2	1.05	0.95	;
	132	2	75.956	14.842	0	0	1	1.0123	3.84	63	2	1.05	0.95	;
	133	2	263.665	62.860	0	0	1	1.0278	11.05	63	2	1.05	0.95	;
	134	2	248.573	41.657	0	0	1	1.0244	7.48	63	2	1.05	0.95	;
	135	2	249.571	25.818	0	0	1	1.0306	-7.68	63	2	1.05	0.95	;
	136	2	324.529	38.415	0	0	1	1.0355	-10.07	63	2	1.05	0.95	;
	137	2	183.093	46.272	0	0	1	1.0304	10.52	63	2	1.05	0.95	;
	138	2	195.690	35.671	0	0	1	1.0244	8.6	63	2	1.05	0.95	;
	139	2	240.092	27.065	0	0	1	1.0263	-8.5	63	2	1.05	0.95	;
	140	2	64.607	11.100	0	0	1	1.0198	-11.14	63	2	1.05	0.95	;
	141	2	135.823	11.475	0	0	1	1.0259	-10.62	63	2	1.05	0.95	;
	142	2	198.684	34.049	0	0	1	1.0294	9.09	63	2	1.05	0.95	;
	143	1	119.111	12.597	0	0	1	1.0218	-7.9	63	2	1.05	0.95	;
	144	2	97.284	10.352	0	0	1	1.0284	9.25	63	2	1.05	0.95	;
	145	2	253.188	50.014	0	0	1	1.0294	8.86	63	2	1.05	0.95	;
	146	2	23.697	3.617	0	0	1	1.0219	-8.2	63	2	1.05	0.95	;
	147	2	91.173	12.597	0	0	1	1.0257	-5.41	63	2	1.05	0.95	;
	148	1	0.000	0.000	0	0	1	1.0087	15.36	63	2	1.05	0.95	;
	149	2	235.103	40.535	0	0	1	1.0271	-14.47	63	2	1.05	0.95	;
	150	2	59.119	12.597	0	0	1	1.0179	9.81	63	2	1.05	0.95	;
	151	2	288.983	72.963	0	0	1	1.0222	9.02	63	2	1.05	0.95	;
	152	2	99.654	24.072	0	0	1	1.0227	9.59	63	2	1.05	0.95	;
	153	2	15.091	3.866	0	0	1	1.0266	24.89	63	2	1.05	0.95	;
	154	2	121.106	12.223	0	0	1	1.0243	-5.11	63	2	1.05	0.95	;
	155	2	74.584	18.833	0	0	1	1.0373	10.6	63	2	1.05	0.95	;
	156	2	40.909	8.232	0	0	1	1.0325	11.6	63	2	1.05	0.95	;
	157	2	168.376	27.065	0	0	1	1.0236	5.19	63	2	1.05	0.95	;
	158	2	121.854	22.824	0	0	1	1.0278	7.66	63	2	1.05	0.95	;
	159	2	132.082	21.951	0	0	1	1.0342	-11.83	63	2	1.05	0.95	;
	160	2	137.445	16.214	0	0	1	1.0354	10.43	63	2	1.05	0.95	;
	161	2	22.325	6.361	0	0	1	1.0288	3.36	63	2	1.05	0.95	;
	162	2	86.308	15.341	0	0	1	1.0185	8.08	63	2	1.05	0.95	;
	163	2	16.962	11.475	0	0	1	1.0257	16.02	63	2	1.05	0.95	;
	164	2	52.883	6.361	0	0	1	1.0267	-0.5	63	2	1.05	0.95	;
	165	2	65.355	16.089	0	0	1	1.0075	19.04	63	2	1.05	0.95	;
	166	2	168.376	23.323	0	0	1	1.0363	-6.94	63	2	1.05	0.95	;
	167	2	48.767	8.980	0	0	1	1.009	14.03	63	2	1.05	0.95	;
	168	2	187.334	33.301	0	0	1	1.0333	-5.83	63	2	1.05	0.95	;
	169	2	24.446	14.593	0	0	1	1.0319	-8.56	63	2	1.05	0.95	;
	170	2	49.016	13.969	0	0	1	1.026	5.04	63	2	1.05	0.95	;
	171	2	84.437	9.479	0	0	1	1.0261	3.27	63	2	1.05	0.95	;
	172	2	51.511	9.479	0	0	1	1.0081	15.64	63	2	1.05	0.95	;
	173	2	0.000	0.000	0	0	1	1.0382	16.39	150	2	1.05	0.95	;
	174	2	0.000	0.000	0	0	1	1.0371	16.04	150	2	1.05	0.95	;
	175	2	0.000	0.000	0	0	1	1.0141	0.25	150	2	1.05	0.95	;
	176	2	0.000	0.000	0	0	1	1.014	0.25	150	2	1.05	0.95	;
	177	2	0.000	0.000	0	0	1	1.0396	16.57	150	2	1.05	0.95	;
	178	2	0.000	0.000	0	0	1	1.0279	15.32	150	2	1.05	0.95	;
	179	2	0.000	0.000	0	0	1	1.0369	15.62	150	2	1.05	0.95	;
	180	1	0.000	0.000	0	0	1	1.0342	-6.69	150	2	1.05	0.95	;
	181	2	0.000	0.000	0	0	1	1.0307	10.33	150	2	1.05	0.95	;
	182	2	0.000	0.000	0	0	1	1.0377	16.25	150	2	1.05	0.95	;
	184	1	0.000	0.000	0	0	1	1.0341	15.12	150	2	1.05	0.95	;
	185	1	0.000	0.000	0	0	1	1.038	-6.15	150	2	1.05	0.95	;
	186	1	0.000	0.000	0	0	1	1.0298	-7.44	150	2	1.05	0.95	;
	187	2	0.000	0.000	0	0	1	1.0242	0.14	220	2	1.05	0.95	;
	188	2	0.000	0.000	0	0	1	1.024	0.12	220	2	1.05	0.95	;
	189	2	0.000	0.000	0	0	1	1.024	0.12	220	2	1.05	0.95	;
	190	1	0.000	0.000	0	0	1	1.0215	9.6	220	2	1.05	0.95	;
	191	2	0.000	0.000	0	0	1	1.0491	29.11	220	2	1.05	0.95	;
	192	2	0.000	0.000	0	0	1	1.0442	26.19	220	2	1.05	0.95	;
	193	1	0.000	0.000	0	0	1	1.0228	9.73	220	2	1.05	0.95	;
	194	2	0.000	0.000	0	0	1	1.0473	19.25	220	2	1.05	0.95	;
	195	2	0.000	0.000	0	0	1	1.0376	6.17	220	2	1.05	0.95	;
	196	2	0.000	0.000	0	0	1	1.048	19.3	220	2	1.05	0.95	;
	198	2	0.000	0.000	0	0	1	1.0486	20.33	220	2	1.05	0.95	;
	199	1	0.000	0.000	0	0	1	1.0291	2.35	220	2	1.05	0.95	;
	200	2	0.000	0.000	0	0	1	1.0473	27.86	220	2	1.05	0.95	;
	201	2	0.000	0.000	0	0	1	1.0473	27.86	220	2	1.05	0.95	;
	202	2	0.000	0.000	0	0	1	1.0473	27.86	220	2	1.05	0.95	;
	203	2	0.000	0.000	0	0	1	1.0473	27.89	220	2	1.05	0.95	;
...
];

%% generator data
%	bus	Pg	Qg	Qmax	Qmin	Vg	mBase	status	Pmax	Pmin	Pc1	Pc2	Qc1min	Qc1max	Qc2min	Qc2max	ramp_agc	ramp_10	ramp_30	ramp_q	apf
mpc.gen = [
	1	597.049	-75.023	9999.000	-9999.000	1.0492	100.00	1	9999.000	-9999.000	0	0	0	0	0	0	0	0	0	0	0	;
	2	71.063	-65.240	9999.000	-9999.000	1.0487	100.00	1	9999.000	-9999.000	0	0	0	0	0	0	0	0	0	0	0	;
	3	21.720	-75.292	9999.000	-9999.000	1.0443	100.00	1	9999.000	-9999.000	0	0	0	0	0	0	0	0	0	0	0	;
	4	33.365	-48.230	9999.000	-9999.000	1.0401	100.00	1	9999.000	-9999.000	0	0	0	0	0	0	0	0	0	0	0	;
	5	187.625	-27.362	9999.000	-9999.000	1.0490	100.00	1	9999.000	-9999.000	0	0	0	0	0	0	0	0	0	0	0	;
	6	120.786	-17.406	9999.000	-9999.000	1.0487	100.00	1	9999.000	-9999.000	0	0	0	0	0	0	0	0	0	0	0	;
	7	0.000	52.356	9999.000	-9999.000	1.0366	100.00	1	9999.000	-9999.000	0	0	0	0	0	0	0	0	0	0	0	;
	305	182.048	1.279	9999.000	-9999.000	1.0475	100.00	1	9999.000	-9999.000	0	0	0	0	0	0	0	0	0	0	0	;
	10	0.000	0.000	57.850	-57.850	1.0400	155.77	0	144.625	0.000	0	0	0	0	0	0	0	0	0	0	0	;
	14	0.000	0.000	66.647	-66.647	1.0359	179.45	0	166.617	0.000	0	0	0	0	0	0	0	0	0	0	0	;
	22	0.000	0.000	41.951	-41.951	1.0324	112.96	0	104.878	0.000	0	0	0	0	0	0	0	0	0	0	0	;
	22	0.000	0.000	56.511	-56.511	1.0324	152.16	0	141.278	0.000	0	0	0	0	0	0	0	0	0	0	0	;
	24	0.000	0.000	66.647	-66.647	1.0252	179.45	0	166.617	0.000	0	0	0	0	0	0	0	0	0	0	0	;
	29	0.000	0.000	43.388	-43.388	1.0284	116.82	0	108.469	0.000	0	0	0	0	0	0	0	0	0	0	0	;
	30	31.000	2.791	15.500	-12.400	1.0342	34.66	1	31.000	15.500	0	0	0	0	0	0	0	0	0	0	0	;
	30	0.000	0.000	15.500	-12.400	1.0342	34.66	0	31.000	15.500	0	0	0	0	0	0	0	0	0	0	0	;
	34	0.000	0.000	72.313	-72.313	1.0357	194.71	0	180.781	0.000	0	0	0	0	0	0	0	0	0	0	0	;
	61	60.000	5.530	30.000	-24.000	1.0355	67.08	1	60.000	30.000	0	0	0	0	0	0	0	0	0	0	0	;
	61	60.000	5.530	30.000	-24.000	1.0355	67.08	1	60.000	30.000	0	0	0	0	0	0	0	0	0	0	0	;
	61	60.000	5.530	30.000	-24.000	1.0355	67.08	1	60.000	30.000	0	0	0	0	0	0	0	0	0	0	0	;
	64	0.000	0.000	46.153	-46.153	1.0239	124.27	0	115.383	0.000	0	0	0	0	0	0	0	0	0	0	0	;
	65	2.111	9.657	22.559	-22.559	1.0379	60.74	1	56.397	0.000	0	0	0	0	0	0	0	0	0	0	0	;
	73	3.309	8.737	35.358	-35.358	1.0307	95.21	1	88.396	0.000	0	0	0	0	0	0	0	0	0	0	0	;
	97	0.000	0.000	66.647	-66.647	1.0420	179.45	0	166.617	0.000	0	0	0	0	0	0	0	0	0	0	0	;
	107	0.000	0.000	115.700	-115.700	1.0287	311.53	0	289.250	0.000	0	0	0	0	0	0	0	0	0	0	0	;
	108	1.128	4.160	12.056	-12.056	1.0090	32.46	1	30.141	0.000	0	0	0	0	0	0	0	0	0	0	0	;
	108	10.818	3.204	9.285	-9.285	1.0090	25.00	1	23.212	0.000	0	0	0	0	0	0	0	0	0	0	0	;
	109	15.500	3.592	7.750	-6.200	1.0245	17.33	1	15.500	7.750	0	0	0	0	0	0	0	0	0	0	0	;
	109	30.000	6.952	15.000	-12.000	1.0245	33.54	1	30.000	15.000	0	0	0	0	0	0	0	0	0	0	0	;
	109	44.523	10.376	24.038	-24.038	1.0245	64.72	1	60.095	0.000	0	0	0	0	0	0	0	0	0	0	0	;
	109	2.049	9.453	21.898	-21.898	1.0245	58.96	1	54.745	0.000	0	0	0	0	0	0	0	0	0	0	0	;
	109	6.793	0.000	0.000	0.000	1.0245	15.70	1	15.700	0.000	0	0	0	0	0	0	0	0	0	0	0	;
	109	0.000	0.000	6.812	-6.812	1.0245	18.34	0	17.030	0.000	0	0	0	0	0	0	0	0	0	0	0	;
	110	12.880	-0.044	6.954	-6.954	1.0287	18.72	1	17.385	0.000	0	0	0	0	0	0	0	0	0	0	0	;
	110	0.000	0.000	4.886	-4.886	1.0287	13.16	0	12.216	0.000	0	0	0	0	0	0	0	0	0	0	0	;
	111	4.832	0.499	2.609	-2.609	1.0266	7.02	1	6.522	0.000	0	0	0	0	0	0	0	0	0	0	0	;
	112	144.266	32.728	77.890	-77.890	1.0312	209.72	1	194.724	0.000	0	0	0	0	0	0	0	0	0	0	0	;
	112	0.000	0.000	18.627	-18.627	1.0312	50.15	0	46.567	0.000	0	0	0	0	0	0	0	0	0	0	0	;
	113	1.324	-0.006	0.715	-0.715	1.0323	1.92	1	1.787	0.000	0	0	0	0	0	0	0	0	0	0	0	;
	113	2.899	0.000	0.000	0.000	1.0323	6.70	1	6.700	0.000	0	0	0	0	0	0	0	0	0	0	0	;
	113	0.000	0.000	41.496	-41.496	1.0323	111.73	0	103.740	0.000	0	0	0	0	0	0	0	0	0	0	0	;
	114	20.103	5.722	10.854	-10.854	1.0361	29.22	1	27.134	0.000	0	0	0	0	0	0	0	0	0	0	0	;
	114	5.045	28.425	53.912	-53.912	1.0361	145.16	1	134.780	0.000	0	0	0	0	0	0	0	0	0	0	0	;
	114	5.842	0.000	0.000	0.000	1.0361	13.50	1	13.500	0.000	0	0	0	0	0	0	0	0	0	0	0	;
	114	11.683	5.287	10.028	-10.028	1.0361	27.00	1	25.069	0.000	0	0	0	0	0	0	0	0	0	0	0	;
	114	0.000	0.000	7.023	-7.023	1.0361	18.91	0	17.558	0.000	0	0	0	0	0	0	0	0	0	0	0	;
	115	16.000	1.095	9.000	-7.200	1.0192	20.12	1	18.000	-18.000	0	0	0	0	0	0	0	0	0	0	0	;
	115	15.000	1.095	9.000	-7.200	1.0192	20.12	1	18.000	-18.000	0	0	0	0	0	0	0	0	0	0	0	;
	115	1.599	0.045	0.863	-0.863	1.0192	2.32	1	2.158	0.000	0	0	0	0	0	0	0	0	0	0	0	;
	115	0.913	0.506	9.754	-9.754	1.0192	26.26	1	24.384	0.000	0	0	0	0	0	0	0	0	0	0	0	;
	115	4.414	0.000	0.000	0.000	1.0192	10.20	1	10.200	0.000	0	0	0	0	0	0	0	0	0	0	0	;
	116	48.100	16.179	25.969	-25.969	1.0197	69.92	1	64.923	0.000	0	0	0	0	0	0	0	0	0	0	0	;
	116	0.779	0.000	0.000	0.000	1.0197	1.80	1	1.800	0.000	0	0	0	0	0	0	0	0	0	0	0	;
	116	0.000	0.000	5.915	-5.915	1.0197	15.93	0	14.789	0.000	0	0	0	0	0	0	0	0	0	0	0	;
	117	0.911	-0.001	0.492	-0.492	1.0205	1.32	1	1.230	0.000	0	0	0	0	0	0	0	0	0	0	0	;
	117	0.000	0.000	13.352	-13.352	1.0205	35.95	0	33.381	0.000	0	0	0	0	0	0	0	0	0	0	0	;
	118	27.532	7.652	14.865	-14.865	1.0259	40.02	1	37.162	0.000	0	0	0	0	0	0	0	0	0	0	0	;
	118	0.669	3.682	7.154	-7.154	1.0259	19.26	1	17.885	0.000	0	0	0	0	0	0	0	0	0	0	0	;
	118	10.601	0.000	0.000	0.000	1.0259	24.50	1	24.500	0.000	0	0	0	0	0	0	0	0	0	0	0	;
	118	34.400	15.199	29.526	-29.526	1.0259	79.50	1	73.814	0.000	0	0	0	0	0	0	0	0	0	0	0	;
	119	4.488	0.988	2.423	-2.423	1.0408	6.52	1	6.058	0.000	0	0	0	0	0	0	0	0	0	0	0	;
	119	1.889	8.230	20.190	-20.190	1.0408	54.36	1	50.474	0.000	0	0	0	0	0	0	0	0	0	0	0	;
	119	0.000	0.000	5.915	-5.915	1.0408	15.93	0	14.789	0.000	0	0	0	0	0	0	0	0	0	0	0	;
	120	19.828	6.521	10.705	-10.705	1.0295	28.82	1	26.763	0.000	0	0	0	0	0	0	0	0	0	0	0	;
	120	2.150	13.994	22.975	-22.975	1.0295	61.86	1	57.438	0.000	0	0	0	0	0	0	0	0	0	0	0	;
	120	8.654	0.000	0.000	0.000	1.0295	20.00	1	20.000	0.000	0	0	0	0	0	0	0	0	0	0	0	;
	120	0.000	0.000	7.181	-7.181	1.0295	19.34	0	17.953	0.000	0	0	0	0	0	0	0	0	0	0	0	;
	121	0.850	5.448	9.085	-9.085	1.0225	24.46	1	22.713	0.000	0	0	0	0	0	0	0	0	0	0	0	;
	121	0.433	0.000	0.000	0.000	1.0225	1.00	1	1.000	0.000	0	0	0	0	0	0	0	0	0	0	0	;
	121	0.000	0.000	18.200	-18.200	1.0225	49.01	0	45.500	0.000	0	0	0	0	0	0	0	0	0	0	0	;
	122	15.563	5.206	8.402	-8.402	1.0383	22.62	1	21.006	0.000	0	0	0	0	0	0	0	0	0	0	0	;
	122	5.611	37.152	59.966	-59.966	1.0383	161.46	1	149.914	0.000	0	0	0	0	0	0	0	0	0	0	0	;
	122	0.000	0.000	4.913	-4.913	1.0383	13.23	0	12.283	0.000	0	0	0	0	0	0	0	0	0	0	0	;
	123	31.453	5.810	16.982	-16.982	1.0371	45.72	1	42.454	0.000	0	0	0	0	0	0	0	0	0	0	0	;
	123	0.000	0.000	14.882	-14.882	1.0371	40.07	0	37.205	0.000	0	0	0	0	0	0	0	0	0	0	0	;
	124	0.980	0.362	0.529	-0.529	1.0293	1.42	1	1.322	0.000	0	0	0	0	0	0	0	0	0	0	0	;
	124	8.214	59.995	87.783	-87.783	1.0293	236.36	1	219.457	0.000	0	0	0	0	0	0	0	0	0	0	0	;
	124	0.563	0.000	0.000	0.000	1.0293	1.30	1	1.300	0.000	0	0	0	0	0	0	0	0	0	0	0	;
	125	1.218	2.114	13.022	-13.022	1.0257	35.06	1	32.555	0.000	0	0	0	0	0	0	0	0	0	0	0	;
	126	25.606	1.865	13.825	-13.825	1.0350	37.22	1	34.562	0.000	0	0	0	0	0	0	0	0	0	0	0	;
	126	1.330	1.917	14.210	-14.210	1.0350	38.26	1	35.526	0.000	0	0	0	0	0	0	0	0	0	0	0	;
	126	0.000	0.000	16.926	-16.926	1.0350	45.57	0	42.315	0.000	0	0	0	0	0	0	0	0	0	0	0	;
	127	1.530	0.294	0.826	-0.826	1.0314	2.22	1	2.065	0.000	0	0	0	0	0	0	0	0	0	0	0	;
	127	12.398	47.063	132.498	-132.498	1.0314	356.76	1	331.246	0.000	0	0	0	0	0	0	0	0	0	0	0	;
	127	19.861	0.000	0.000	0.000	1.0314	45.90	1	45.900	0.000	0	0	0	0	0	0	0	0	0	0	0	;
	127	13.306	4.056	11.420	-11.420	1.0314	30.75	1	28.551	0.000	0	0	0	0	0	0	0	0	0	0	0	;
	127	0.000	0.000	4.886	-4.886	1.0314	13.16	0	12.216	0.000	0	0	0	0	0	0	0	0	0	0	0	;
	128	112.073	38.587	60.509	-60.509	1.0328	162.92	1	151.271	0.000	0	0	0	0	0	0	0	0	0	0	0	;
	128	0.701	4.775	7.488	-7.488	1.0328	20.16	1	18.720	0.000	0	0	0	0	0	0	0	0	0	0	0	;
	128	19.688	0.000	0.000	0.000	1.0328	45.50	1	45.500	0.000	0	0	0	0	0	0	0	0	0	0	0	;
	128	0.000	0.000	6.232	-6.232	1.0328	16.78	0	15.580	0.000	0	0	0	0	0	0	0	0	0	0	0	;
	129	59.000	22.762	37.500	-30.000	1.0285	83.85	1	75.000	37.500	0	0	0	0	0	0	0	0	0	0	0	;
	129	49.957	15.943	26.972	-26.972	1.0285	72.62	1	67.430	0.000	0	0	0	0	0	0	0	0	0	0	0	;
	129	1.820	11.495	19.447	-19.447	1.0285	52.36	1	48.617	0.000	0	0	0	0	0	0	0	0	0	0	0	;
	129	7.918	0.000	0.000	0.000	1.0285	18.30	1	18.300	0.000	0	0	0	0	0	0	0	0	0	0	0	;
	130	6.827	1.074	3.686	-3.686	1.0188	9.92	1	9.215	0.000	0	0	0	0	0	0	0	0	0	0	0	;
	131	58.969	8.674	31.837	-31.837	1.0323	85.72	1	79.593	0.000	0	0	0	0	0	0	0	0	0	0	0	;
	131	2.668	7.767	28.509	-28.509	1.0323	76.76	1	71.272	0.000	0	0	0	0	0	0	0	0	0	0	0	;
	131	0.000	0.000	14.513	-14.513	1.0323	39.08	0	36.282	0.000	0	0	0	0	0	0	0	0	0	0	0	;
	132	23.749	5.339	12.822	-12.822	1.0123	34.52	1	32.055	0.000	0	0	0	0	0	0	0	0	0	0	0	;
	132	1.371	6.103	14.656	-14.656	1.0123	39.46	1	36.640	0.000	0	0	0	0	0	0	0	0	0	0	0	;
	132	0.000	0.000	4.886	-4.886	1.0123	13.16	0	12.216	0.000	0	0	0	0	0	0	0	0	0	0	0	;
	133	95.220	31.821	51.409	-51.409	1.0278	138.42	1	128.524	0.000	0	0	0	0	0	0	0	0	0	0	0	;
	133	4.992	33.025	53.355	-53.355	1.0278	143.66	1	133.387	0.000	0	0	0	0	0	0	0	0	0	0	0	;
	133	7.226	0.000	0.000	0.000	1.0278	16.70	1	16.700	0.000	0	0	0	0	0	0	0	0	0	0	0	;
	134	128.583	48.461	69.422	-69.422	1.0244	186.92	1	173.555	0.000	0	0	0	0	0	0	0	0	0	0	0	;
	134	0.000	0.000	5.493	-5.493	1.0244	14.79	0	13.734	0.000	0	0	0	0	0	0	0	0	0	0	0	;
	135	0.567	0.987	6.064	-6.064	1.0306	16.33	1	15.161	0.000	0	0	0	0	0	0	0	0	0	0	0	;
	136	4.626	0.176	2.497	-2.497	1.0355	6.72	1	6.243	0.000	0	0	0	0	0	0	0	0	0	0	0	;
	136	0.000	0.000	6.970	-6.970	1.0355	18.77	0	17.426	0.000	0	0	0	0	0	0	0	0	0	0	0	;
	137	20.309	6.326	10.965	-10.965	1.0304	29.52	1	27.413	0.000	0	0	0	0	0	0	0	0	0	0	0	;
	137	2.125	13.104	22.715	-22.715	1.0304	61.16	1	56.788	0.000	0	0	0	0	0	0	0	0	0	0	0	;
	137	2.120	0.000	0.000	0.000	1.0304	4.90	1	4.900	0.000	0	0	0	0	0	0	0	0	0	0	0	;
	138	4.626	0.482	2.497	-2.497	1.0244	6.72	1	6.243	0.000	0	0	0	0	0	0	0	0	0	0	0	;
	138	2.856	0.000	0.000	0.000	1.0244	6.60	1	6.600	0.000	0	0	0	0	0	0	0	0	0	0	0	;
	138	0.000	0.000	7.920	-7.920	1.0244	21.32	0	19.799	0.000	0	0	0	0	0	0	0	0	0	0	0	;
	139	6.896	0.414	3.723	-3.723	1.0263	10.02	1	9.307	0.000	0	0	0	0	0	0	0	0	0	0	0	;
	139	0.000	0.000	4.886	-4.886	1.0263	13.16	0	12.216	0.000	0	0	0	0	0	0	0	0	0	0	0	;
	140	2.986	0.000	0.000	0.000	1.0198	6.90	1	6.900	0.000	0	0	0	0	0	0	0	0	0	0	0	;
	140	0.000	0.000	57.500	-57.500	1.0198	154.82	0	143.749	0.000	0	0	0	0	0	0	0	0	0	0	0	;
	141	9.303	1.100	5.023	-5.023	1.0259	13.52	1	12.557	0.000	0	0	0	0	0	0	0	0	0	0	0	;
	141	0.000	0.000	4.886	-4.886	1.0259	13.16	0	12.216	0.000	0	0	0	0	0	0	0	0	0	0	0	;
	142	13.774	4.364	7.437	-7.437	1.0294	20.02	1	18.592	0.000	0	0	0	0	0	0	0	0	0	0	0	;
	142	4.520	28.341	48.304	-48.304	1.0294	130.06	1	120.760	0.000	0	0	0	0	0	0	0	0	0	0	0	;
	142	11.943	0.000	0.000	0.000	1.0294	27.60	1	27.600	0.000	0	0	0	0	0	0	0	0	0	0	0	;
	142	0.000	0.000	4.913	-4.913	1.0294	13.23	0	12.283	0.000	0	0	0	0	0	0	0	0	0	0	0	;
	144	1.599	0.336	0.863	-0.863	1.0284	2.32	1	2.158	0.000	0	0	0	0	0	0	0	0	0	0	0	;
	144	4.450	18.498	47.561	-47.561	1.0284	128.06	1	118.903	0.000	0	0	0	0	0	0	0	0	0	0	0	;
	145	278.266	70.220	150.237	-150.237	1.0294	404.52	1	375.591	0.000	0	0	0	0	0	0	0	0	0	0	0	;
	145	0.913	4.559	9.754	-9.754	1.0294	26.26	1	24.384	0.000	0	0	0	0	0	0	0	0	0	0	0	;
	146	0.000	0.000	12.922	-12.922	1.0219	34.79	0	32.305	0.000	0	0	0	0	0	0	0	0	0	0	0	;
	147	4.282	0.016	2.312	-2.312	1.0257	6.22	1	5.779	0.000	0	0	0	0	0	0	0	0	0	0	0	;
	147	0.000	0.000	6.970	-6.970	1.0257	18.77	0	17.426	0.000	0	0	0	0	0	0	0	0	0	0	0	;
	149	1.668	0.259	0.900	-0.900	1.0271	2.42	1	2.251	0.000	0	0	0	0	0	0	0	0	0	0	0	;
	149	0.000	0.000	11.830	-11.830	1.0271	31.85	0	29.575	0.000	0	0	0	0	0	0	0	0	0	0	0	;
	150	0.000	0.000	4.000	-3.200	1.0179	8.94	0	8.000	4.000	0	0	0	0	0	0	0	0	0	0	0	;
	150	8.800	0.586	4.400	-3.520	1.0179	9.84	1	8.800	4.400	0	0	0	0	0	0	0	0	0	0	0	;
	150	8.800	0.586	4.400	-3.520	1.0179	9.84	1	8.800	4.400	0	0	0	0	0	0	0	0	0	0	0	;
	150	8.800	0.586	4.400	-3.520	1.0179	9.84	1	8.800	4.400	0	0	0	0	0	0	0	0	0	0	0	;
	150	8.800	0.586	4.400	-3.520	1.0179	9.84	1	8.800	4.400	0	0	0	0	0	0	0	0	0	0	0	;
	150	0.000	0.000	4.000	-3.200	1.0179	8.94	0	8.000	4.000	0	0	0	0	0	0	0	0	0	0	0	;
	150	0.000	0.000	12.500	-10.000	1.0179	27.95	0	25.000	12.500	0	0	0	0	0	0	0	0	0	0	0	;
	150	37.094	1.293	20.027	-20.027	1.0179	53.92	1	50.067	0.000	0	0	0	0	0	0	0	0	0	0	0	;
	150	2.754	1.900	29.437	-29.437	1.0179	79.26	1	73.593	0.000	0	0	0	0	0	0	0	0	0	0	0	;
	150	2.423	0.000	0.000	0.000	1.0179	5.60	1	5.600	0.000	0	0	0	0	0	0	0	0	0	0	0	;
	150	0.000	0.000	17.519	-17.519	1.0179	47.17	0	43.798	0.000	0	0	0	0	0	0	0	0	0	0	0	;
	151	19.484	6.361	10.519	-10.519	1.0222	28.32	1	26.298	0.000	0	0	0	0	0	0	0	0	0	0	0	;
	151	4.846	0.000	0.000	0.000	1.0222	11.20	1	11.200	0.000	0	0	0	0	0	0	0	0	0	0	0	;
	151	0.000	0.000	4.886	-4.886	1.0222	13.16	0	12.216	0.000	0	0	0	0	0	0	0	0	0	0	0	;
	152	18.452	1.326	9.962	-9.962	1.0227	26.82	1	24.906	0.000	0	0	0	0	0	0	0	0	0	0	0	;
	152	3.995	5.681	42.696	-42.696	1.0227	114.96	1	106.740	0.000	0	0	0	0	0	0	0	0	0	0	0	;
	152	11.596	0.000	0.000	0.000	1.0227	26.80	1	26.800	0.000	0	0	0	0	0	0	0	0	0	0	0	;
	152	14.279	1.631	12.256	-12.256	1.0227	33.00	1	30.640	0.000	0	0	0	0	0	0	0	0	0	0	0	;
	152	0.000	0.000	4.913	-4.913	1.0227	13.23	0	12.283	0.000	0	0	0	0	0	0	0	0	0	0	0	;
	153	0.774	0.683	8.268	-8.268	1.0266	22.26	1	20.670	0.000	0	0	0	0	0	0	0	0	0	0	0	;
	153	0.000	0.000	4.913	-4.913	1.0266	13.23	0	12.283	0.000	0	0	0	0	0	0	0	0	0	0	0	;
	154	3.731	0.119	2.015	-2.015	1.0243	5.42	1	5.036	0.000	0	0	0	0	0	0	0	0	0	0	0	;
	154	0.000	0.000	5.757	-5.757	1.0243	15.50	0	14.393	0.000	0	0	0	0	0	0	0	0	0	0	0	;
	155	0.000	0.000	20.000	-16.000	1.0373	44.72	0	40.000	20.000	0	0	0	0	0	0	0	0	0	0	0	;
	155	1.117	0.333	0.603	-0.603	1.0373	1.62	1	1.508	0.000	0	0	0	0	0	0	0	0	0	0	0	;
	155	9.593	56.687	102.527	-102.527	1.0373	276.06	1	256.317	0.000	0	0	0	0	0	0	0	0	0	0	0	;
	155	8.741	0.000	0.000	0.000	1.0373	20.20	1	20.200	0.000	0	0	0	0	0	0	0	0	0	0	0	;
	156	8.645	33.324	92.388	-92.388	1.0325	248.76	1	230.970	0.000	0	0	0	0	0	0	0	0	0	0	0	;
	156	4.197	0.000	0.000	0.000	1.0325	9.70	1	9.700	0.000	0	0	0	0	0	0	0	0	0	0	0	;
	157	13.155	3.128	7.103	-7.103	1.0236	19.12	1	17.757	0.000	0	0	0	0	0	0	0	0	0	0	0	;
	158	2.837	0.882	1.532	-1.532	1.0278	4.12	1	3.829	0.000	0	0	0	0	0	0	0	0	0	0	0	;
	158	2.800	17.221	29.920	-29.920	1.0278	80.56	1	74.800	0.000	0	0	0	0	0	0	0	0	0	0	0	;
	158	0.000	0.000	4.886	-4.886	1.0278	13.16	0	12.216	0.000	0	0	0	0	0	0	0	0	0	0	0	;
	159	5.795	2.146	3.129	-3.129	1.0342	8.42	1	7.822	0.000	0	0	0	0	0	0	0	0	0	0	0	;
	159	6.448	47.266	68.916	-68.916	1.0342	185.56	1	172.290	0.000	0	0	0	0	0	0	0	0	0	0	0	;
	159	1.168	0.000	0.000	0.000	1.0342	2.70	1	2.700	0.000	0	0	0	0	0	0	0	0	0	0	0	;
	159	0.000	0.000	4.004	-4.004	1.0342	10.78	0	10.010	0.000	0	0	0	0	0	0	0	0	0	0	0	;
	160	19.002	5.094	10.259	-10.259	1.0354	27.62	1	25.649	0.000	0	0	0	0	0	0	0	0	0	0	0	;
	160	7.324	38.861	78.275	-78.275	1.0354	210.76	1	195.688	0.000	0	0	0	0	0	0	0	0	0	0	0	;
	160	23.928	0.000	0.000	0.000	1.0354	55.30	1	55.300	0.000	0	0	0	0	0	0	0	0	0	0	0	;
	161	8.395	34.229	89.714	-89.714	1.0288	241.56	1	224.285	0.000	0	0	0	0	0	0	0	0	0	0	0	;
	162	41.290	9.320	22.292	-22.292	1.0185	60.02	1	55.731	0.000	0	0	0	0	0	0	0	0	0	0	0	;
	162	2.094	9.358	22.381	-22.381	1.0185	60.26	1	55.952	0.000	0	0	0	0	0	0	0	0	0	0	0	;
	162	1.385	0.000	0.000	0.000	1.0185	3.20	1	3.200	0.000	0	0	0	0	0	0	0	0	0	0	0	;
	163	8.123	14.000	86.817	-86.817	1.0257	233.76	1	217.043	0.000	0	0	0	0	0	0	0	0	0	0	0	;
	163	3.115	0.000	0.000	0.000	1.0257	7.20	1	7.200	0.000	0	0	0	0	0	0	0	0	0	0	0	;
	164	5.842	0.000	0.000	0.000	1.0267	13.50	1	13.500	0.000	0	0	0	0	0	0	0	0	0	0	0	;
	164	0.000	0.000	41.860	-41.860	1.0267	112.71	0	104.650	0.000	0	0	0	0	0	0	0	0	0	0	0	;
	165	3.217	8.063	34.377	-34.377	1.0075	92.56	1	85.942	0.000	0	0	0	0	0	0	0	0	0	0	0	;
	165	9.130	0.000	0.000	0.000	1.0075	21.10	1	21.100	0.000	0	0	0	0	0	0	0	0	0	0	0	;
	166	14.050	3.732	7.585	-7.585	1.0363	20.42	1	18.964	0.000	0	0	0	0	0	0	0	0	0	0	0	;
	166	8.766	46.096	93.688	-93.688	1.0363	252.26	1	234.220	0.000	0	0	0	0	0	0	0	0	0	0	0	;
	166	0.000	0.000	4.966	-4.966	1.0363	13.37	0	12.415	0.000	0	0	0	0	0	0	0	0	0	0	0	;
	167	1.530	-0.015	0.826	-0.826	1.0090	2.22	1	2.065	0.000	0	0	0	0	0	0	0	0	0	0	0	;
	167	4.669	-0.909	49.901	-49.901	1.0090	134.36	1	124.752	0.000	0	0	0	0	0	0	0	0	0	0	0	;
	167	16.140	0.000	0.000	0.000	1.0090	37.30	1	37.300	0.000	0	0	0	0	0	0	0	0	0	0	0	;
	168	4.075	0.407	2.200	-2.200	1.0333	5.92	1	5.501	0.000	0	0	0	0	0	0	0	0	0	0	0	;
	168	0.000	0.000	4.886	-4.886	1.0333	13.16	0	12.216	0.000	0	0	0	0	0	0	0	0	0	0	0	;
	169	5.927	43.103	63.345	-63.345	1.0319	170.56	1	158.363	0.000	0	0	0	0	0	0	0	0	0	0	0	;
	169	0.000	0.000	6.006	-6.006	1.0319	16.17	0	15.015	0.000	0	0	0	0	0	0	0	0	0	0	0	;
	170	3.863	24.831	41.285	-41.285	1.0260	111.16	1	103.212	0.000	0	0	0	0	0	0	0	0	0	0	0	;
	170	1.731	0.000	0.000	0.000	1.0260	4.00	1	4.000	0.000	0	0	0	0	0	0	0	0	0	0	0	;
	171	0.459	0.000	0.000	0.000	1.0261	1.06	1	1.060	0.000	0	0	0	0	0	0	0	0	0	0	0	;
	171	0.000	0.000	11.190	-11.190	1.0261	30.13	0	27.975	0.000	0	0	0	0	0	0	0	0	0	0	0	;
	172	2.487	3.335	26.578	-26.578	1.0081	71.56	1	66.444	0.000	0	0	0	0	0	0	0	0	0	0	0	;
...
];

%% gen tags 
% Generation Technology Type:
%  CWS (Connection with Spain),
%  FOG (Fossil Gas),
%  FHC (Fossil Hard Coal),
%  HWR (Hydro Water Reservoir),
%  HPS (Hydro Pumped Storage),
%  HRP (Hydro Run-of-river and poundage),
%  SH1 (Small Hydro - P ≤ 10 MW),
%  SH3 (Small Hydro - 10 MW < P ≤ 30 MW),
%  PVP (Photovoltaic power plant),
%  WON (Wind onshore),
%  WOF (Wind offshore),
%  MAR (Marine),
%  OTH (Other thermal, such as geothermal, biomass, biogas, Municipal solid waste and CHP renewable and non-renewable)
%	genType
mpc.gen_tags = {
	'CWS';	'CWS';	'CWS';	'CWS';	'CWS';	'CWS';	'CWS';	'CWS';	'PVP';	'PVP';	'PVP';	'PVP';	'PVP';	'PVP';	'HWR';	'HWR';	'PVP';	'HRP';	'HRP';	'HRP';	'PVP';	'WON';	'WON';	'PVP';	'PVP';	'WON';	'SH3';	'HRP';	'HRP';	'OTH';	'WON';	'SH1';	'PVP';	'OTH';	'PVP';	'OTH';	'OTH';	'PVP';	'OTH';	'SH1';	'PVP';	'OTH';	'WON';	'SH1';	'SH3';	'PVP';	'HPS';	'HPS';	'OTH';	'WON';	'SH1';	'OTH';	'SH1';	'PVP';	'OTH';	'PVP';	'OTH';	'WON';	'SH1';	'SH3';	'OTH';	'WON';	'PVP';	'OTH';	'WON';	'SH1';	'PVP';	'WON';	'SH1';	'PVP';	'OTH';	'WON';	'PVP';	'OTH';	'PVP';	'OTH';	'WON';	'SH1';	'WON';	'OTH';	'WON';	'PVP';	'OTH';	'WON';	'SH1';	'SH3';	'PVP';	'OTH';	'WON';	'SH1';	'PVP';	'HWR';	'OTH';	'WON';	'SH1';	'OTH';	'OTH';	'WON';	'PVP';	'OTH';	'WON';	'PVP';	'OTH';	'WON';	'SH1';	'OTH';	'PVP';	'WON';	'OTH';	'PVP';	'OTH';	'WON';	'SH1';	'OTH';	'SH1';	'PVP';	'OTH';	'PVP';	'SH1';	'PVP';	'OTH';	'PVP';	'OTH';	'WON';	'SH1';	'PVP';	'OTH';	'WON';	'OTH';	'WON';	'PVP';	'OTH';	'PVP';	'OTH';	'PVP';	'HWR';	'HRP';	'HRP';	'HRP';	'HRP';	'HWR';	'HWR';	'OTH';	'WON';	'SH1';	'PVP';	'OTH';	'SH1';	'PVP';	'OTH';	'WON';	'SH1';	'SH3';	'PVP';	'WON';	'PVP';	'OTH';	'PVP';	'HWR';	'OTH';	'WON';	'SH1';	'WON';	'SH1';	'OTH';	'OTH';	'WON';	'PVP';	'OTH';	'WON';	'SH1';	'PVP';	'OTH';	'WON';	'SH1';	'WON';	'OTH';	'WON';	'SH1';	'WON';	'SH1';	'SH1';	'PVP';	'WON';	'SH1';	'OTH';	'WON';	'PVP';	'OTH';	'WON';	'SH1';	'OTH';	'PVP';	'WON';	'PVP';	'WON';	'SH1';	'SH1';	'PVP';	'WON';	'SH1';	'HWR';	'HWR';	'HWR';	'HWR';	'HWR';	'HWR';	'HWR';	'HWR';	'HWR';	'HWR';	'HPS';	'HPS';	'HWR';	'HWR';	'HWR';	'HPS';	'HRP';	'HRP';	'HRP';	'HPS';	'HPS';	'HWR';	'HWR';	'HWR';	'HRP';	'HRP';	'HRP';	'HRP';	'HRP';	'HRP';	'HRP';	'HRP';	'HRP';	'HRP';	'HPS';	'HPS';	'HPS';	'HRP';	'HRP';	'HRP';	'HPS';	'HPS';	'HRP';	'HRP';	'HRP';	'HRP';	'HRP';	'HRP';	'HRP';	'HRP';	'HRP';	'FOG';	'HRP';	'HPS';	'HPS';	'HPS';	'HPS';	'HPS';	'HPS';	'HPS';	'HPS';	'HPS';	'HWR';	'HWR';	'FOG';	'FOG';	'FOG';	'FOG';	'FOG';	'FOG';	'OTH';	'WON';	'WON';	'WON';	'WON';	'OTH';	'WON';	'WON';	'WON';	'WON';	'WON';	'WON';	'WON';	'HRP';	'HRP';	'HRP';	'WOF';	'MAR';	'PVP';	'HPS';	'HPS';	'PVP';	'PVP';	'PVP';	'PVP';	'HWR';	'HWR';	'HPS';	'HPS';	'HPS';	'HPS';	'HWR';	'HWR';	'WON';	'PVP';	'PVP';
};

%% branch data
% If the 'step_size', 'actTap', 'minTap', 'maxTap' and 'normalTap' fields are equal to "-1", it means that the transformer does not have tap changing capability
% If the length is equal to "0", it means that the correspondent branch represents a transformer
%	fbus	tbus	r	x	b	rateA (summer)	rateB (spring)	rateC (winter)	tap ratio	shift angle		status	angmin	angmax	step_size	actTap	minTap	maxTap	normalTap	length (km)
mpc.branch = [
	8	24	0.02945	0.09879	0.03302	91	123	130	0	0	0	-360	360	0	0	0	0	0	54.0	;
	8	176	0.02007	0.06867	0.02205	96	104	104	0	0	1	-360	360	0	0	0	0	0	36.6	;
	8	176	0.02014	0.06872	0.02229	96	104	104	0	0	1	-360	360	0	0	0	0	0	36.7	;
	9	14	0.00146	0.00787	0.00265	255	260	260	0	0	1	-360	360	0	0	0	0	0	4.3	;
	9	14	0.00146	0.00769	0.00260	255	260	260	0	0	1	-360	360	0	0	0	0	0	4.2	;
	9	14	0.00137	0.00737	0.00250	124	162	203	0	0	1	-360	360	0	0	0	0	0	4.1	;
	10	19	0.02098	0.11168	0.03801	218	248	260	0	0	1	-360	360	0	0	0	0	0	61.3	;
	10	22	0.02445	0.08166	0.02747	164	186	206	0	0	1	-360	360	0	0	0	0	0	44.5	;
	10	26	0.00777	0.04761	0.01640	260	260	260	0	0	1	-360	360	0	0	0	0	0	26.0	;
	11	14	0.02030	0.07019	0.02214	171	186	206	0	0	1	-360	360	0	0	0	0	0	36.7	;
	11	14	0.02010	0.06862	0.02204	191	204	222	0	0	1	-360	360	0	0	0	0	0	36.5	;
	12	22	0.02823	0.10553	0.04049	189	204	222	0	0	1	-360	360	0	0	0	0	0	61.6	;
	12	23	0.01953	0.08771	0.03214	195	204	222	0	0	1	-360	360	0	0	0	0	0	49.8	;
	12	29	0.01515	0.04945	0.01745	195	204	222	0	0	1	-360	360	0	0	0	0	0	27.9	;
	12	29	0.01515	0.04945	0.01745	195	204	222	0	0	1	-360	360	0	0	0	0	0	27.9	;
	12	29	0.00551	0.05765	0.03609	260	260	260	0	0	1	-360	360	0	0	0	0	0	42.8	;
	12	34	0.02334	0.12013	0.04435	255	260	260	0	0	1	-360	360	0	0	0	0	0	68.7	;
	13	14	0.00788	0.04049	0.01506	255	260	260	0	0	1	-360	360	0	0	0	0	0	23.1	;
	13	14	0.00788	0.04049	0.01506	255	260	260	0	0	1	-360	360	0	0	0	0	0	23.1	;
	13	20	0.00745	0.02441	0.00855	195	204	221	0	0	1	-360	360	0	0	0	0	0	13.6	;
	13	20	0.00745	0.02441	0.00855	195	204	221	0	0	1	-360	360	0	0	0	0	0	13.6	;
	13	20	0.00745	0.02441	0.00855	195	204	221	0	0	1	-360	360	0	0	0	0	0	13.6	;
	13	20	0.00745	0.02441	0.00855	195	204	221	0	0	1	-360	360	0	0	0	0	0	13.6	;
	13	180	0.00411	0.02110	0.00788	255	260	260	0	0	1	-360	360	0	0	0	0	0	12.0	;
	13	246	0.00422	0.02163	0.00811	260	260	260	0	0	1	-360	360	0	0	0	0	0	12.2	;
	14	180	0.00411	0.02110	0.00788	255	260	260	0	0	1	-360	360	0	0	0	0	0	12.0	;
	14	185	0.01114	0.03788	0.01266	191	204	222	0	0	1	-360	360	0	0	0	0	0	20.5	;
	14	186	0.02662	0.09054	0.02905	185	204	222	0	0	1	-360	360	0	0	0	0	0	48.4	;
	14	246	0.00408	0.02092	0.00779	255	260	260	0	0	1	-360	360	0	0	0	0	0	12.0	;
	15	22	0.02154	0.10932	0.04126	224	248	260	0	0	1	-360	360	0	0	0	0	0	63.4	;
	15	22	0.02154	0.10932	0.04126	224	248	260	0	0	1	-360	360	0	0	0	0	0	63.4	;
	15	26	0.00974	0.05968	0.02055	260	260	260	0	0	1	-360	360	0	0	0	0	0	32.6	;
	15	27	0.02701	0.09576	0.03037	191	204	222	0	0	1	-360	360	0	0	0	0	0	50.5	;
	15	28	0.03335	0.10915	0.03827	195	204	222	0	0	1	-360	360	0	0	0	0	0	60.7	;
	15	29	0.05251	0.17172	0.06032	195	204	222	0	0	1	-360	360	0	0	0	0	0	95.6	;
	15	250	0.00184	0.00954	0.00342	130	130	130	0	0	1	-360	360	0	0	0	0	0	5.4	;
	15	250	0.00187	0.00974	0.00349	130	130	130	0	0	1	-360	360	0	0	0	0	0	5.5	;
	15	255	0.00282	0.01157	0.02727	260	273	296	0	0	1	-360	360	0	0	0	0	0	5.9	;
	16	178	0.00839	0.03586	0.01167	104	123	130	0	0	1	-360	360	0	0	0	0	0	19.0	;
	17	21	0.01658	0.06789	0.02323	195	204	222	0	0	1	-360	360	0	0	0	0	0	37.9	;
	17	21	0.00900	0.05720	0.02480	260	273	296	0	0	1	-360	360	0	0	0	0	0	35.0	;
	17	25	0.01638	0.06453	0.02191	104	123	153	0	0	1	-360	360	0	0	0	0	0	35.2	;
	17	184	0.01106	0.03018	0.01032	91	108	134	0	0	1	-360	360	0	0	0	0	0	16.6	;
	18	287	0.00156	0.01068	0.00498	260	273	296	0	0	0	-360	360	0	0	0	0	0	6.8	;
	18	288	0.00151	0.01038	0.00484	260	273	296	0	0	1	-360	360	0	0	0	0	0	6.6	;
	18	306	0.00548	0.02813	0.01051	255	260	260	0	0	1	-360	360	0	0	0	0	0	16.0	;
	18	307	0.00480	0.02461	0.00920	255	260	260	0	0	1	-360	360	0	0	0	0	0	14.0	;
	19	186	0.02662	0.09054	0.02905	185	204	222	0	0	1	-360	360	0	0	0	0	0	48.4	;
	21	30	0.01441	0.06067	0.02080	195	204	222	0	0	1	-360	360	0	0	0	0	0	33.3	;
	21	32	0.00720	0.04579	0.01985	260	273	296	0	0	1	-360	360	0	0	0	0	0	28.0	;
	21	32	0.00720	0.04579	0.01985	260	273	296	0	0	1	-360	360	0	0	0	0	0	28.0	;
	21	251	0.00610	0.04180	0.01950	260	273	296	0	0	1	-360	360	0	0	0	0	0	26.5	;
	22	34	0.01325	0.06238	0.06238	337	372	411	0	0	1	-360	360	0	0	0	0	0	57.9	;
	22	245	0.01212	0.04116	0.01324	81	123	130	0	0	1	-360	360	0	0	0	0	0	22.0	;
	23	34	0.01185	0.06135	0.02247	255	260	260	0	0	1	-360	360	0	0	0	0	0	35.1	;
	23	34	0.01185	0.06135	0.02247	255	260	260	0	0	1	-360	360	0	0	0	0	0	35.1	;
	23	34	0.01580	0.07475	0.02730	255	260	260	0	0	1	-360	360	0	0	0	0	0	42.7	;
	24	31	0.00310	0.03271	0.07540	520	520	520	0	0	1	-360	360	0	0	0	0	0	46.5	;
	24	181	0.00436	0.01464	0.00484	189	195	195	0	0	1	-360	360	0	0	0	0	0	7.8	;
	24	248	0.00715	0.03705	0.01350	227	248	381	0	0	1	-360	360	0	0	0	0	0	20.8	;
	24	248	0.00715	0.03705	0.01350	227	248	381	0	0	1	-360	360	0	0	0	0	0	20.8	;
	24	252	0.01240	0.06509	0.02314	253	260	260	0	0	1	-360	360	0	0	0	0	0	36.3	;
	25	32	0.01065	0.03476	0.01219	195	204	222	0	0	1	-360	360	0	0	0	0	0	19.3	;
	25	32	0.01069	0.03488	0.01223	195	204	222	0	0	1	-360	360	0	0	0	0	0	19.3	;
	25	32	0.00504	0.02690	0.01516	233	248	260	0	0	1	-360	360	0	0	0	0	0	18.0	;
	25	307	0.00582	0.01853	0.00675	104	123	153	0	0	1	-360	360	0	0	0	0	0	10.6	;
	25	307	0.00581	0.01846	0.00677	104	123	153	0	0	1	-360	360	0	0	0	0	0	10.6	;
	27	185	0.01114	0.03788	0.01266	191	204	222	0	0	1	-360	360	0	0	0	0	0	20.5	;
	28	29	0.01921	0.06275	0.02210	195	204	222	0	0	1	-360	360	0	0	0	0	0	35.2	;
	30	32	0.00729	0.02383	0.00834	195	204	222	0	0	1	-360	360	0	0	0	0	0	13.2	;
	30	32	0.00729	0.02383	0.00834	195	204	222	0	0	1	-360	360	0	0	0	0	0	13.2	;
	30	32	0.00732	0.02829	0.00946	195	204	222	0	0	1	-360	360	0	0	0	0	0	15.4	;
	30	33	0.00260	0.02724	0.01640	520	520	520	0	0	1	-360	360	0	0	0	0	0	19.8	;
	30	174	0.00358	0.02407	0.00900	260	260	260	0	0	1	-360	360	0	0	0	0	0	13.8	;
	30	179	0.00403	0.01370	0.00440	104	123	153	0	0	1	-360	360	0	0	0	0	0	7.3	;
	30	184	0.01106	0.03018	0.01032	91	108	134	0	0	1	-360	360	0	0	0	0	0	16.6	;
	31	248	0.00715	0.03705	0.01350	227	248	381	0	0	1	-360	360	0	0	0	0	0	20.8	;
	31	248	0.00715	0.03705	0.01350	227	248	381	0	0	1	-360	360	0	0	0	0	0	20.8	;
	31	253	0.01091	0.05722	0.02036	253	260	260	0	0	1	-360	360	0	0	0	0	0	31.9	;
	32	33	0.00695	0.04818	0.02461	504	520	520	0	0	1	-360	360	0	0	0	0	0	32.2	;
	32	254	0.01869	0.10188	0.03320	260	273	296	0	0	1	-360	360	0	0	0	0	0	53.5	;
	32	254	0.01869	0.10188	0.03320	260	273	296	0	0	1	-360	360	0	0	0	0	0	53.5	;
	32	306	0.01351	0.04810	0.01561	195	204	222	0	0	1	-360	360	0	0	0	0	0	25.7	;
	33	173	0.00082	0.00526	0.00200	306	321	348	0	0	1	-360	360	0	0	0	0	0	3.0	;
	33	177	0.00830	0.02880	0.00938	104	104	104	0	0	1	-360	360	0	0	0	0	0	15.3	;
	33	182	0.00023	0.00161	0.00056	306	321	348	0	0	1	-360	360	0	0	0	0	0	0.9	;
	33	184	0.00504	0.03382	0.01267	274	291	322	0	0	1	-360	360	0	0	0	0	0	19.3	;
	36	64	0.00418	0.02292	0.13770	999	1092	1206	0	0	1	-360	360	0	0	0	0	0	52.3	;
	36	71	0.00396	0.02133	0.13035	999	1092	1206	0	0	1	-360	360	0	0	0	0	0	48.9	;
	36	187	0.00011	0.00060	0.00094	191	191	191	0	0	1	-360	360	0	0	0	0	0	0.7	;
	36	188	0.00018	0.00061	0.00092	191	191	191	0	0	1	-360	360	0	0	0	0	0	0.7	;
	36	189	0.00018	0.00061	0.00092	191	191	191	0	0	1	-360	360	0	0	0	0	0	0.8	;
	37	59	0.00168	0.00382	0.35975	493	493	493	0	0	1	-360	360	0	0	0	0	0	10.4	;
	37	213	0.00017	0.00044	0.04927	322	322	322	0	0	1	-360	360	0	0	0	0	0	1.8	;
	37	214	0.00017	0.00044	0.04927	322	322	322	0	0	1	-360	360	0	0	0	0	0	1.8	;
	37	215	0.00017	0.00044	0.04927	322	322	322	0	0	1	-360	360	0	0	0	0	0	1.8	;
	37	216	0.00017	0.00044	0.04927	322	322	322	0	0	1	-360	360	0	0	0	0	0	1.8	;
	38	208	0.00048	0.00109	0.10268	493	493	493	0	0	1	-360	360	0	0	0	0	0	3.2	;
	38	209	0.00048	0.00108	0.10056	493	493	493	0	0	1	-360	360	0	0	0	0	0	3.2	;
	39	45	0.01696	0.09185	0.14133	381	381	381	0	0	1	-360	360	0	0	0	0	0	106.8	;
	39	69	0.00691	0.03721	0.05799	513	546	571.5	0	0	1	-360	360	0	0	0	0	0	43.0	;
	39	69	0.00687	0.03725	0.05671	381	381	381	0	0	1	-360	360	0	0	0	0	0	43.0	;
	39	71	0.00183	0.01006	0.05957	1026	1090.5	1143	0	0	1	-360	360	0	0	0	0	0	22.2	;
	39	78	0.00658	0.03647	0.05332	382	400	435	0	0	1	-360	360	0	0	0	0	0	41.1	;
	39	195	0.00484	0.02634	0.04046	199	237	297	0	0	1	-360	360	0	0	0	0	0	30.4	;
	39	199	0.00873	0.04861	0.07070	381	381	381	0	0	1	-360	360	0	0	0	0	0	54.7	;
	39	258	0.00326	0.01810	0.02629	382	400	435	0	0	1	-360	360	0	0	0	0	0	20.3	;
	39	258	0.00240	0.01307	0.02007	199	237	297	0	0	1	-360	360	0	0	0	0	0	15.1	;
	40	51	0.00874	0.04843	0.07272	374	400	435	0	0	1	-360	360	0	0	0	0	0	54.7	;
	40	65	0.00985	0.05518	0.07982	499.5	546	571.5	0	0	1	-360	360	0	0	0	0	0	61.9	;
	40	65	0.00944	0.05439	0.07975	499.5	546	571.5	0	0	1	-360	360	0	0	0	0	0	61.8	;
	40	196	0.00017	0.00091	0.00135	182	237	297	0	0	1	-360	360	0	0	0	0	0	1.0	;
	40	198	0.00214	0.01565	0.02877	439	471	511	0	0	1	-360	360	0	0	0	0	0	19.6	;
	40	5	0.00630	0.03584	0.05497	374	400	435	0	0	1	-360	360	0	0	0	0	0	41.1	;
	40	5	0.00636	0.03628	0.05564	374	400	435	0	0	1	-360	360	0	0	0	0	0	41.4	;
	40	6	0.00481	0.02670	0.03939	360	390	430	0	0	1	-360	360	0	0	0	0	0	30.2	;
	41	53	0.00145	0.00845	0.01465	381	381	381	0	0	1	-360	360	0	0	0	0	0	10.4	;
	41	53	0.00078	0.00546	0.00902	381	381	381	0	0	1	-360	360	0	0	0	0	0	6.5	;
	41	57	0.00318	0.01660	0.02798	381	381	381	0	0	1	-360	360	0	0	0	0	0	20.2	;
	41	68	0.00084	0.00572	0.00995	401	426	472	0	0	1	-360	360	0	0	0	0	0	7.0	;
	41	68	0.00170	0.00386	0.36133	493	493	493	0	0	1	-360	360	0	0	0	0	0	10.7	;
	41	210	0.00056	0.00586	0.01715	762	762	762	0	0	1	-360	360	0	0	0	0	0	9.4	;
	41	211	0.00221	0.02313	0.06702	762	762	762	0	0	1	-360	360	0	0	0	0	0	37.0	;
	41	308	0.00006	0.00025	0.01708	240	240	240	0	0	1	-360	360	0	0	0	0	0	0.7	;
	42	78	0.00448	0.02493	0.03617	382	400	435	0	0	1	-360	360	0	0	0	0	0	28.0	;
	42	78	0.00448	0.02494	0.03619	382	400	435	0	0	1	-360	360	0	0	0	0	0	28.0	;
	42	257	0.00276	0.01543	0.02230	381	381	381	0	0	1	-360	360	0	0	0	0	0	17.3	;
	42	257	0.00274	0.01524	0.02237	381	381	381	0	0	1	-360	360	0	0	0	0	0	17.3	;
	43	58	0.00210	0.00476	0.44633	493	493	493	0	0	1	-360	360	0	0	0	0	0	12.6	;
	43	76	0.00113	0.00321	0.34652	446	446	446	0	0	1	-360	360	0	0	0	0	0	11.1	;
	43	76	0.00113	0.00320	0.34511	446	446	446	0	0	1	-360	360	0	0	0	0	0	11.1	;
	43	204	0.00146	0.00771	0.01235	381	381	381	0	0	1	-360	360	0	0	0	0	0	9.2	;
	43	205	0.00063	0.00332	0.00533	381	381	381	0	0	1	-360	360	0	0	0	0	0	3.9	;
	43	219	0.00083	0.00445	0.00676	342	364	381	0	0	1	-360	360	0	0	0	0	0	5.4	;
	44	48	0.00396	0.02139	0.03311	342	364	381	0	0	1	-360	360	0	0	0	0	0	24.9	;
	44	66	0.00779	0.04029	0.06834	381	381	381	0	0	1	-360	360	0	0	0	0	0	50.9	;
	44	66	0.00311	0.03080	0.09461	897	941	1021	0	0	1	-360	360	0	0	0	0	0	50.7	;
	44	193	0.00504	0.02686	0.04234	381	381	381	0	0	1	-360	360	0	0	0	0	0	31.7	;
	45	46	0.00650	0.03510	0.05270	382	400	435	0	0	1	-360	360	0	0	0	0	0	40.2	;
	45	46	0.00608	0.03139	0.05420	382	400	435	0	0	1	-360	360	0	0	0	0	0	38.8	;
	45	46	0.00614	0.03155	0.05417	382	400	435	0	0	1	-360	360	0	0	0	0	0	38.8	;
	45	74	0.00586	0.03263	0.04775	381	381	381	0	0	1	-360	360	0	0	0	0	0	36.7	;
	45	74	0.00586	0.03263	0.04775	381	381	381	0	0	1	-360	360	0	0	0	0	0	36.7	;
	45	199	0.00873	0.04861	0.07070	381	381	381	0	0	1	-360	360	0	0	0	0	0	54.7	;
	46	50	0.00409	0.02221	0.03328	381	400	435	0	0	1	-360	360	0	0	0	0	0	25.4	;
	46	64	0.00275	0.01510	0.09065	666	728	804	0	0	1	-360	360	0	0	0	0	0	34.8	;
	46	214	0.00477	0.02559	0.04001	381	381	381	0	0	1	-360	360	0	0	0	0	0	30.0	;
	46	216	0.00465	0.02524	0.03797	382	400	435	0	0	1	-360	360	0	0	0	0	0	28.9	;
	46	222	0.00006	0.00021	0.02068	438	438	438	0	0	1	-360	360	0	0	0	0	0	0.8	;
	46	260	0.00913	0.04888	0.07531	342	364	381	0	0	1	-360	360	0	0	0	0	0	56.8	;
	47	57	0.01028	0.05388	0.08954	381	381	381	0	0	1	-360	360	0	0	0	0	0	65.0	;
	47	61	0.00034	0.00182	0.00285	199	237	297	0	0	1	-360	360	0	0	0	0	0	2.1	;
	47	66	0.00525	0.02886	0.04430	381	381	381	0	0	1	-360	360	0	0	0	0	0	33.4	;
	47	67	0.00789	0.04153	0.06856	381	381	381	0	0	1	-360	360	0	0	0	0	0	50.0	;
	47	75	0.00724	0.03931	0.05957	382	400	435	0	0	1	-360	360	0	0	0	0	0	45.0	;
	47	211	0.00221	0.02313	0.06702	762	762	762	0	0	1	-360	360	0	0	0	0	0	37.0	;
	47	224	0.00039	0.00426	0.01070	750	762	762	0	0	1	-360	360	0	0	0	0	0	6.4	;
	48	66	0.01101	0.05739	0.09535	381	381	381	0	0	1	-360	360	0	0	0	0	0	69.5	;
	48	69	0.00352	0.01887	0.02971	513	546	571.5	0	0	1	-360	360	0	0	0	0	0	22.6	;
	48	69	0.00350	0.01889	0.02900	381	381	381	0	0	1	-360	360	0	0	0	0	0	22.0	;
	49	57	0.00169	0.00872	0.05960	381	381	381	0	0	1	-360	360	0	0	0	0	0	21.4	;
	49	193	0.00037	0.00490	0.01932	1200	1200	1200	0	0	1	-360	360	0	0	0	0	0	9.2	;
	49	221	0.00055	0.00728	0.02882	762	762	762	0	0	1	-360	360	0	0	0	0	0	13.7	;
	50	55	0.00311	0.01663	0.02615	381	381	381	0	0	1	-360	360	0	0	0	0	0	19.5	;
	50	55	0.00252	0.01377	0.02062	381	381	381	0	0	1	-360	360	0	0	0	0	0	15.8	;
	50	56	0.00162	0.01419	0.06090	762	762	762	0	0	1	-360	360	0	0	0	0	0	27.0	;
	50	204	0.00146	0.00771	0.01235	381	381	381	0	0	1	-360	360	0	0	0	0	0	9.2	;
	50	213	0.00210	0.01087	0.01848	381	381	381	0	0	1	-360	360	0	0	0	0	0	13.3	;
	50	215	0.00316	0.01718	0.02582	382	400	435	0	0	1	-360	360	0	0	0	0	0	19.7	;
	50	217	0.00182	0.00952	0.01558	382	400	435	0	0	1	-360	360	0	0	0	0	0	11.3	;
	51	66	0.00711	0.03753	0.06399	382	400	435	0	0	1	-360	360	0	0	0	0	0	45.9	;
	51	66	0.00712	0.03759	0.06408	382	400	435	0	0	1	-360	360	0	0	0	0	0	46.0	;
	51	194	0.00465	0.02422	0.04046	382	400	435	0	0	1	-360	360	0	0	0	0	0	29.4	;
	51	194	0.00466	0.02427	0.04055	382	400	435	0	0	1	-360	360	0	0	0	0	0	29.5	;
	51	224	0.00039	0.00426	0.01070	750	762	762	0	0	0	-360	360	0	0	0	0	0	6.4	;
	52	199	0.00057	0.00311	0.00469	191	191	191	0	0	1	-360	360	0	0	0	0	0	3.6	;
	53	68	0.00078	0.00545	0.00900	401	426	472	0	0	1	-360	360	0	0	0	0	0	6.6	;
	53	190	0.00222	0.01196	0.02035	381	381	381	0	0	1	-360	360	0	0	0	0	0	14.7	;
	54	63	0.00412	0.02158	0.03520	374	381	381	0	0	1	-360	360	0	0	0	0	0	25.7	;
	54	77	0.00631	0.03514	0.05182	374	400	435	0	0	1	-360	360	0	0	0	0	0	39.5	;
	54	77	0.00636	0.03898	0.06249	374	400	435	0	0	1	-360	360	0	0	0	0	0	46.1	;
	54	191	0.00237	0.01312	0.01925	182	229	229	0	0	1	-360	360	0	0	0	0	0	14.9	;
	54	191	0.00189	0.01296	0.02104	229	229	229	0	0	1	-360	360	0	0	0	0	0	15.5	;
	54	192	0.00309	0.01722	0.02516	374	400	435	0	0	1	-360	360	0	0	0	0	0	19.4	;
	54	200	0.00006	0.00035	0.00053	182	237	297	0	0	1	-360	360	0	0	0	0	0	0.4	;
	54	201	0.00006	0.00035	0.00053	182	237	297	0	0	1	-360	360	0	0	0	0	0	0.4	;
	54	202	0.00006	0.00035	0.00053	182	237	297	0	0	1	-360	360	0	0	0	0	0	0.4	;
	54	203	0.00005	0.00034	0.00053	182	237	297	0	0	1	-360	360	0	0	0	0	0	0.2	;
	55	58	0.00049	0.00177	0.22418	364	364	364	0	0	1	-360	360	0	0	0	0	0	7.8	;
	55	204	0.00041	0.00224	0.00340	381	381	381	0	0	1	-360	360	0	0	0	0	0	2.6	;
	55	205	0.00063	0.00332	0.00533	381	381	381	0	0	1	-360	360	0	0	0	0	0	3.9	;
	56	74	0.00719	0.04008	0.05857	382	400	435	0	0	1	-360	360	0	0	0	0	0	46.0	;
	56	205	0.00144	0.00779	0.01170	382	400	435	0	0	1	-360	360	0	0	0	0	0	8.9	;
	57	60	0.00351	0.01764	0.02842	381	381	381	0	0	1	-360	360	0	0	0	0	0	20.8	;
	57	67	0.00249	0.01299	0.02177	381	381	381	0	0	1	-360	360	0	0	0	0	0	15.7	;
	57	190	0.00222	0.01196	0.02035	381	381	381	0	0	1	-360	360	0	0	0	0	0	14.7	;
	57	210	0.00056	0.00586	0.01715	762	762	762	0	0	1	-360	360	0	0	0	0	0	9.4	;
	57	220	0.00042	0.00563	0.02152	1200	1200	1200	0	0	1	-360	360	0	0	0	0	0	10.4	;
	57	221	0.00055	0.00728	0.02882	762	762	762	0	0	1	-360	360	0	0	0	0	0	13.7	;
	58	219	0.00038	0.00138	0.17477	364	364	364	0	0	1	-360	360	0	0	0	0	0	6.2	;
...
];
